Data/networks/opendssNetworks/network_3/Feeder_4/Loads - Copy.txt
New Load.LOAD1 Phases=1 Bus1=64.1 kV=0.23 kW=1 PF=0.95
New Load.LOAD2 Phases=1 Bus1=67.3 kV=0.23 kW=1 PF=0.95
New Load.LOAD3 Phases=1 Bus1=76.1 kV=0.23 kW=1 PF=0.95
New Load.LOAD4 Phases=1 Bus1=81.1 kV=0.23 kW=1 PF=0.95
New Load.LOAD5 Phases=1 Bus1=90.3 kV=0.23 kW=1 PF=0.95
New Load.LOAD6 Phases=1 Bus1=97.2 kV=0.23 kW=1 PF=0.95
New Load.LOAD7 Phases=1 Bus1=126.2 kV=0.23 kW=1 PF=0.95
New Load.LOAD8 Phases=1 Bus1=133.3 kV=0.23 kW=1 PF=0.95
New Load.LOAD9 Phases=1 Bus1=160.3 kV=0.23 kW=1 PF=0.95
New Load.LOAD10 Phases=1 Bus1=193.1 kV=0.23 kW=1 PF=0.95
New Load.LOAD11 Phases=1 Bus1=204.1 kV=0.23 kW=1 PF=0.95
New Load.LOAD12 Phases=1 Bus1=210.2 kV=0.23 kW=1 PF=0.95
New Load.LOAD13 Phases=1 Bus1=232.2 kV=0.23 kW=1 PF=0.95
New Load.LOAD14 Phases=1 Bus1=233.3 kV=0.23 kW=1 PF=0.95
New Load.LOAD15 Phases=1 Bus1=248.3 kV=0.23 kW=1 PF=0.95
New Load.LOAD16 Phases=1 Bus1=252.3 kV=0.23 kW=1 PF=0.95
New Load.LOAD17 Phases=1 Bus1=253.3 kV=0.23 kW=1 PF=0.95
New Load.LOAD18 Phases=1 Bus1=260.1 kV=0.23 kW=1 PF=0.95
New Load.LOAD19 Phases=1 Bus1=284.2 kV=0.23 kW=1 PF=0.95
New Load.LOAD20 Phases=1 Bus1=312.1 kV=0.23 kW=1 PF=0.95
New Load.LOAD21 Phases=1 Bus1=321.2 kV=0.23 kW=1 PF=0.95
New Load.LOAD22 Phases=1 Bus1=368.1 kV=0.23 kW=1 PF=0.95
New Load.LOAD23 Phases=1 Bus1=388.1 kV=0.23 kW=1 PF=0.95
New Load.LOAD24 Phases=1 Bus1=395.2 kV=0.23 kW=1 PF=0.95
New Load.LOAD25 Phases=1 Bus1=402.3 kV=0.23 kW=1 PF=0.95
New Load.LOAD26 Phases=1 Bus1=409.1 kV=0.23 kW=1 PF=0.95
New Load.LOAD27 Phases=1 Bus1=447.3 kV=0.23 kW=1 PF=0.95
New Load.LOAD28 Phases=1 Bus1=465.1 kV=0.23 kW=1 PF=0.95
New Load.LOAD29 Phases=1 Bus1=477.2 kV=0.23 kW=1 PF=0.95
New Load.LOAD30 Phases=1 Bus1=478.3 kV=0.23 kW=1 PF=0.95
New Load.LOAD31 Phases=1 Bus1=509.2 kV=0.23 kW=1 PF=0.95
New Load.LOAD32 Phases=1 Bus1=530.3 kV=0.23 kW=1 PF=0.95
New Load.LOAD33 Phases=1 Bus1=539.3 kV=0.23 kW=1 PF=0.95
New Load.LOAD34 Phases=1 Bus1=558.1 kV=0.23 kW=1 PF=0.95
New Load.LOAD35 Phases=1 Bus1=589.2 kV=0.23 kW=1 PF=0.95
New Load.LOAD36 Phases=1 Bus1=597.3 kV=0.23 kW=1 PF=0.95
New Load.LOAD37 Phases=1 Bus1=598.3 kV=0.23 kW=1 PF=0.95
New Load.LOAD38 Phases=1 Bus1=608.1 kV=0.23 kW=1 PF=0.95
